/*--------------------------------*- C++ -*----------------------------------*\
| =========                 |                                                 |
| \\      /  F ield         | OpenFOAM: The Open Source CFD Toolbox           |
|  \\    /   O peration     | Version:  6                                     |
|   \\  /    A nd           | Web:      www.OpenFOAM.com                      |
|    \\/     M anipulation  |                                                 |
\*---------------------------------------------------------------------------*/
FoamFile
{
    version     2.0;
    format      ascii;
    class       dictionary;
    object      functionObject;
}
// * * * * * * * * * * * * * * * * * * * * * * * * * * * * * * * * * * * * * //

residuals
    {
        type           residuals;
        writeControl   timeStep;
        writeInterval  1;
        fields
        (
            U.air
            U.water
            p
            alpha.air
            alpha.water
        );
    }

