/*--------------------------------*- C++ -*----------------------------------*\
  =========                 |
  \\      /  F ield         | OpenFOAM: The Open Source CFD Toolbox
   \\    /   O peration     | Website:  https://openfoam.org
    \\  /    A nd           | Version:  9
     \\/     M anipulation  |
\*---------------------------------------------------------------------------*/
FoamFile
{
    format      ascii;
    class       dictionary;
    location    "system";
    object      setFieldsDict;
}
// * * * * * * * * * * * * * * * * * * * * * * * * * * * * * * * * * * * * * //

#include "../input"

defaultFieldValues
(
    volScalarFieldValue alpha.air 1
    volScalarFieldValue alpha.water 0
);

regions
(
    boxToCell
    {
        box (0 0 0) (0.2 $h0_water 0.02);
        fieldValues
        (
            volScalarFieldValue alpha.air 0
            volScalarFieldValue alpha.water 1
        );
    }
);


// ************************************************************************* //
