/*--------------------------------*- C++ -*----------------------------------*\
  =========                 |
  \\      /  F ield         | OpenFOAM: The Open Source CFD Toolbox
   \\    /   O peration     | Website:  https://openfoam.org
    \\  /    A nd           | Version:  9
     \\/     M anipulation  |
\*---------------------------------------------------------------------------*/
FoamFile
{
    format      ascii;
    class       dictionary;
    location    "system";
    object      fvSchemes;
}
// * * * * * * * * * * * * * * * * * * * * * * * * * * * * * * * * * * * * * //

ddtSchemes
{
    default         backward;
}

gradSchemes
{
    default         Gauss linear; //Gauss linear - leastSquares
}

divSchemes
{
    default                         none;

    div(phi,alpha.air)              Gauss vanLeer;
    div(phi,alpha.water)            Gauss vanLeer;
    div(phir,alpha.water,alpha.air) Gauss vanLeer;
    div(phir,alpha.air,alpha.water) Gauss vanLeer;

    "div\(alphaRhoPhi.*,U.*\)"      Gauss limitedLinearV 1; //linearUpwindV grad(U) - limitedLinearV 1
    "div\(phi.*,U.*\)"              Gauss limitedLinearV 1; //linearUpwindV grad(U) - limitedLinearV 1

    "div\(alphaRhoPhi.*,(h|e).*\)"  Gauss limitedLinear 1;  //linearUpwind grad(U) - limitedLinear 1
    "div\(alphaRhoPhi.*,K.*\)"      Gauss limitedLinear 1;  //linearUpwind grad(U) - limitedLinear 1
    "div\(alphaRhoPhi.*,\(p\|thermo:rho.*\)\)" Gauss limitedLinear 1;  //linearUpwind grad(U) - limitedLinear 1

    "div\(alphaRhoPhi.*,(k|epsilon|omega).*\)"  Gauss limitedLinear 1;  //linearUpwind grad(U) - limitedLinear 1
    "div\(phim,(k|epsilon)m\)"      Gauss limitedLinear 1;  //linearUpwind grad(U) - limitedLinear 1

    "div\(\(\(\(alpha.*\*thermo:rho.*\)*nuEff.*\)\*dev2\(T\(grad\(U.*\)\)\)\)\)" Gauss linear;
}

laplacianSchemes
{
    default         Gauss linear uncorrected;
}

interpolationSchemes
{
    default         linear;
}

snGradSchemes
{
    default         uncorrected;
}

 wallDist
    {
        method meshWave;
/*
        // Optional entry enabling the calculation
        // of the normal-to-wall field
        nRequired false;

        // Optional entry delaying wall distance update to every n steps
        // Default is 1 (update every step)
        updateInterval 5;
        */
    }

// ************************************************************************* //
