/*--------------------------------*- C++ -*----------------------------------*\
  =========                 |
  \\      /  F ield         | OpenFOAM: The Open Source CFD Toolbox
   \\    /   O peration     | Website:  https://openfoam.org
    \\  /    A nd           | Version:  9
     \\/     M anipulation  |
\*---------------------------------------------------------------------------*/
FoamFile
{
    format      ascii;
    class       volScalarField;
    object      alpha.water;
}
// * * * * * * * * * * * * * * * * * * * * * * * * * * * * * * * * * * * * * //

dimensions      [0 0 0 0 0 0 0];

internalField   uniform 1;

boundaryField
{
    base
    {
        type            fixedValue;
        value           uniform 0.5;
    }
    outlet
    {
        type            baseOutlet;
        phi             phi.water;
        baseValue      uniform 0;
        value           uniform 0;
    }
    walls
    {
        type            zeroGradient;
    }
}

// ************************************************************************* //
